/*--------------------------------*- C++ -*----------------------------------*\
| =========                 |                                                 |
| \\      /  F ield         | OpenFOAM: The Open Source CFD Toolbox           |
|  \\    /   O peration     | Version:  2206                                  |
|   \\  /    A nd           | Website:  www.openfoam.com                      |
|    \\/     M anipulation  |                                                 |
\*---------------------------------------------------------------------------*/
FoamFile
{
    version     2.0;
    format      ascii;
    arch        "LSB;label=32;scalar=64";
    class       volScalarField;
    location    "0";
    object      nut;
}
// * * * * * * * * * * * * * * * * * * * * * * * * * * * * * * * * * * * * * //
#include          "include/freestreamConditions"

dimensions      [0 2 -1 0 0 0 0];

internalField   uniform $nue_t;

boundaryField
{
    frontAndBack_right
    {
        type            wedge;
    }
    "(hub|shroud)"
    {
        type            boundaryCorrectedNutLowReWallFunction;
        value           uniform $nue_t;
    }
    frontAndBack_left
    {
        type            wedge;
    }
    outlet
    {
        type            calculated;
        value           uniform $nue_t;
    }
    inlet
    {
        type            calculated;
        value           uniform $nue_t;
    }
}


// ************************************************************************* //
