/*--------------------------------*- C++ -*----------------------------------*\
| =========                 |                                                 |
| \\      /  F ield         | OpenFOAM: The Open Source CFD Toolbox           |
|  \\    /   O peration     | Version:  2206                                  |
|   \\  /    A nd           | Website:  www.openfoam.com                      |
|    \\/     M anipulation  |                                                 |
\*---------------------------------------------------------------------------*/
FoamFile
{
    version     2.0;
    format      ascii;
    arch        "LSB;label=32;scalar=64";
    class       volScalarField;
    location    "0";
    object      T;
}
// * * * * * * * * * * * * * * * * * * * * * * * * * * * * * * * * * * * * * //
#include          "include/freestreamConditions"

dimensions      [0 0 0 1 0 0 0];

internalField   uniform $T;

boundaryField
{
    frontAndBack_right
    {
        type            wedge;
    }
    "(hub|shroud)"
    {
	type		characteristicWallTemperature;
	#include          "include/freestreamConditions"
        value           uniform $T;
    }
    frontAndBack_left
    {
        type            wedge;
    }
    outlet
    {
        type            characteristicVelocityInletOutletTemperature;
	#include          "include/freestreamConditions"
        value           uniform $T;
    }
    inlet
    {
        type            totalTemperature;
	gamma		1.4;
        T0              uniform 288.7;
    }
}


// ************************************************************************* //
